
---------- Begin Simulation Statistics ----------
simSeconds                                   0.002838                       # Number of seconds simulated (Second)
simTicks                                   2837583500                       # Number of ticks simulated (Tick)
finalTick                                  2837583500                       # Number of ticks from beginning of simulation (restored from checkpoints and never reset) (Tick)
simFreq                                  1000000000000                       # The number of ticks per simulated second ((Tick/Second))
hostSeconds                                     31.99                       # Real time elapsed on the host (Second)
hostTickRate                                 88708033                       # The number of ticks simulated per host second (ticks/s) ((Tick/Second))
hostMemory                                    2269532                       # Number of bytes of host memory used (Byte)
simInsts                                     12294546                       # Number of instructions simulated (Count)
simOps                                       13175810                       # Number of ops (including micro ops) simulated (Count)
hostInstRate                                   384345                       # Simulator instruction rate (inst/s) ((Count/Second))
hostOpRate                                     411894                       # Simulator op (including micro ops) rate (op/s) ((Count/Second))
system.clk_domain.clock                          1000                       # Clock period in ticks (Tick)
system.cpu_cluster.clk_domain.clock               250                       # Clock period in ticks (Tick)
system.cpu_cluster.cpus.numCycles            11350334                       # Number of cpu cycles simulated (Cycle)
system.cpu_cluster.cpus.cpi                  0.923201                       # CPI: cycles per instruction (core level) ((Cycle/Count))
system.cpu_cluster.cpus.ipc                  1.083188                       # IPC: instructions per cycle (core level) ((Count/Cycle))
system.cpu_cluster.cpus.numWorkItemsStarted            0                       # Number of work items this cpu started (Count)
system.cpu_cluster.cpus.numWorkItemsCompleted            0                       # Number of work items this cpu completed (Count)
system.cpu_cluster.cpus.branchPred.lookups_0::NoBranch           12      0.00%      0.00% # Number of BP lookups (Count)
system.cpu_cluster.cpus.branchPred.lookups_0::Return       140234     10.51%     10.51% # Number of BP lookups (Count)
system.cpu_cluster.cpus.branchPred.lookups_0::CallDirect       140327     10.52%     21.04% # Number of BP lookups (Count)
system.cpu_cluster.cpus.branchPred.lookups_0::CallIndirect           20      0.00%     21.04% # Number of BP lookups (Count)
system.cpu_cluster.cpus.branchPred.lookups_0::DirectCond      1012970     75.95%     96.98% # Number of BP lookups (Count)
system.cpu_cluster.cpus.branchPred.lookups_0::DirectUncond        40255      3.02%    100.00% # Number of BP lookups (Count)
system.cpu_cluster.cpus.branchPred.lookups_0::IndirectCond            0      0.00%    100.00% # Number of BP lookups (Count)
system.cpu_cluster.cpus.branchPred.lookups_0::IndirectUncond            1      0.00%    100.00% # Number of BP lookups (Count)
system.cpu_cluster.cpus.branchPred.lookups_0::total      1333819                       # Number of BP lookups (Count)
system.cpu_cluster.cpus.branchPred.squashes_0::NoBranch            4      0.25%      0.25% # Number of branches that got squashed (completely removed) as an earlier branch was mispredicted. (Count)
system.cpu_cluster.cpus.branchPred.squashes_0::Return          156      9.77%     10.02% # Number of branches that got squashed (completely removed) as an earlier branch was mispredicted. (Count)
system.cpu_cluster.cpus.branchPred.squashes_0::CallDirect          217     13.59%     23.61% # Number of branches that got squashed (completely removed) as an earlier branch was mispredicted. (Count)
system.cpu_cluster.cpus.branchPred.squashes_0::CallIndirect           12      0.75%     24.36% # Number of branches that got squashed (completely removed) as an earlier branch was mispredicted. (Count)
system.cpu_cluster.cpus.branchPred.squashes_0::DirectCond         1081     67.69%     92.05% # Number of branches that got squashed (completely removed) as an earlier branch was mispredicted. (Count)
system.cpu_cluster.cpus.branchPred.squashes_0::DirectUncond          126      7.89%     99.94% # Number of branches that got squashed (completely removed) as an earlier branch was mispredicted. (Count)
system.cpu_cluster.cpus.branchPred.squashes_0::IndirectCond            0      0.00%     99.94% # Number of branches that got squashed (completely removed) as an earlier branch was mispredicted. (Count)
system.cpu_cluster.cpus.branchPred.squashes_0::IndirectUncond            1      0.06%    100.00% # Number of branches that got squashed (completely removed) as an earlier branch was mispredicted. (Count)
system.cpu_cluster.cpus.branchPred.squashes_0::total         1597                       # Number of branches that got squashed (completely removed) as an earlier branch was mispredicted. (Count)
system.cpu_cluster.cpus.branchPred.corrected_0::NoBranch            7      1.07%      1.07% # Number of branches that got corrected but not yet commited. Branches get corrected by decode or after execute. Also a branch misprediction can be detected out-of-order. Therefore, a corrected branch might not end up beeing committed in case an even earlier branch was mispredicted (Count)
system.cpu_cluster.cpus.branchPred.corrected_0::Return           19      2.89%      3.96% # Number of branches that got corrected but not yet commited. Branches get corrected by decode or after execute. Also a branch misprediction can be detected out-of-order. Therefore, a corrected branch might not end up beeing committed in case an even earlier branch was mispredicted (Count)
system.cpu_cluster.cpus.branchPred.corrected_0::CallDirect           58      8.83%     12.79% # Number of branches that got corrected but not yet commited. Branches get corrected by decode or after execute. Also a branch misprediction can be detected out-of-order. Therefore, a corrected branch might not end up beeing committed in case an even earlier branch was mispredicted (Count)
system.cpu_cluster.cpus.branchPred.corrected_0::CallIndirect            8      1.22%     14.00% # Number of branches that got corrected but not yet commited. Branches get corrected by decode or after execute. Also a branch misprediction can be detected out-of-order. Therefore, a corrected branch might not end up beeing committed in case an even earlier branch was mispredicted (Count)
system.cpu_cluster.cpus.branchPred.corrected_0::DirectCond          530     80.67%     94.67% # Number of branches that got corrected but not yet commited. Branches get corrected by decode or after execute. Also a branch misprediction can be detected out-of-order. Therefore, a corrected branch might not end up beeing committed in case an even earlier branch was mispredicted (Count)
system.cpu_cluster.cpus.branchPred.corrected_0::DirectUncond           35      5.33%    100.00% # Number of branches that got corrected but not yet commited. Branches get corrected by decode or after execute. Also a branch misprediction can be detected out-of-order. Therefore, a corrected branch might not end up beeing committed in case an even earlier branch was mispredicted (Count)
system.cpu_cluster.cpus.branchPred.corrected_0::IndirectCond            0      0.00%    100.00% # Number of branches that got corrected but not yet commited. Branches get corrected by decode or after execute. Also a branch misprediction can be detected out-of-order. Therefore, a corrected branch might not end up beeing committed in case an even earlier branch was mispredicted (Count)
system.cpu_cluster.cpus.branchPred.corrected_0::IndirectUncond            0      0.00%    100.00% # Number of branches that got corrected but not yet commited. Branches get corrected by decode or after execute. Also a branch misprediction can be detected out-of-order. Therefore, a corrected branch might not end up beeing committed in case an even earlier branch was mispredicted (Count)
system.cpu_cluster.cpus.branchPred.corrected_0::total          657                       # Number of branches that got corrected but not yet commited. Branches get corrected by decode or after execute. Also a branch misprediction can be detected out-of-order. Therefore, a corrected branch might not end up beeing committed in case an even earlier branch was mispredicted (Count)
system.cpu_cluster.cpus.branchPred.earlyResteers_0::NoBranch            0                       # Number of branches that got redirected after decode. (Count)
system.cpu_cluster.cpus.branchPred.earlyResteers_0::Return            0                       # Number of branches that got redirected after decode. (Count)
system.cpu_cluster.cpus.branchPred.earlyResteers_0::CallDirect            0                       # Number of branches that got redirected after decode. (Count)
system.cpu_cluster.cpus.branchPred.earlyResteers_0::CallIndirect            0                       # Number of branches that got redirected after decode. (Count)
system.cpu_cluster.cpus.branchPred.earlyResteers_0::DirectCond            0                       # Number of branches that got redirected after decode. (Count)
system.cpu_cluster.cpus.branchPred.earlyResteers_0::DirectUncond            0                       # Number of branches that got redirected after decode. (Count)
system.cpu_cluster.cpus.branchPred.earlyResteers_0::IndirectCond            0                       # Number of branches that got redirected after decode. (Count)
system.cpu_cluster.cpus.branchPred.earlyResteers_0::IndirectUncond            0                       # Number of branches that got redirected after decode. (Count)
system.cpu_cluster.cpus.branchPred.earlyResteers_0::total            0                       # Number of branches that got redirected after decode. (Count)
system.cpu_cluster.cpus.branchPred.committed_0::NoBranch            8      0.00%      0.00% # Number of branches finally committed  (Count)
system.cpu_cluster.cpus.branchPred.committed_0::Return       140077     10.51%     10.52% # Number of branches finally committed  (Count)
system.cpu_cluster.cpus.branchPred.committed_0::CallDirect       140110     10.52%     21.03% # Number of branches finally committed  (Count)
system.cpu_cluster.cpus.branchPred.committed_0::CallIndirect            8      0.00%     21.03% # Number of branches finally committed  (Count)
system.cpu_cluster.cpus.branchPred.committed_0::DirectCond      1011889     75.96%     96.99% # Number of branches finally committed  (Count)
system.cpu_cluster.cpus.branchPred.committed_0::DirectUncond        40129      3.01%    100.00% # Number of branches finally committed  (Count)
system.cpu_cluster.cpus.branchPred.committed_0::IndirectCond            0      0.00%    100.00% # Number of branches finally committed  (Count)
system.cpu_cluster.cpus.branchPred.committed_0::IndirectUncond            0      0.00%    100.00% # Number of branches finally committed  (Count)
system.cpu_cluster.cpus.branchPred.committed_0::total      1332221                       # Number of branches finally committed  (Count)
system.cpu_cluster.cpus.branchPred.mispredicted_0::NoBranch            7      1.07%      1.07% # Number of committed branches that were mispredicted. (Count)
system.cpu_cluster.cpus.branchPred.mispredicted_0::Return           19      2.89%      3.96% # Number of committed branches that were mispredicted. (Count)
system.cpu_cluster.cpus.branchPred.mispredicted_0::CallDirect           58      8.83%     12.79% # Number of committed branches that were mispredicted. (Count)
system.cpu_cluster.cpus.branchPred.mispredicted_0::CallIndirect            8      1.22%     14.00% # Number of committed branches that were mispredicted. (Count)
system.cpu_cluster.cpus.branchPred.mispredicted_0::DirectCond          530     80.67%     94.67% # Number of committed branches that were mispredicted. (Count)
system.cpu_cluster.cpus.branchPred.mispredicted_0::DirectUncond           35      5.33%    100.00% # Number of committed branches that were mispredicted. (Count)
system.cpu_cluster.cpus.branchPred.mispredicted_0::IndirectCond            0      0.00%    100.00% # Number of committed branches that were mispredicted. (Count)
system.cpu_cluster.cpus.branchPred.mispredicted_0::IndirectUncond            0      0.00%    100.00% # Number of committed branches that were mispredicted. (Count)
system.cpu_cluster.cpus.branchPred.mispredicted_0::total          657                       # Number of committed branches that were mispredicted. (Count)
system.cpu_cluster.cpus.branchPred.targetProvider_0::NoTarget       662086     49.64%     49.64% # The component providing the target for taken branches (Count)
system.cpu_cluster.cpus.branchPred.targetProvider_0::BTB       531499     39.85%     89.49% # The component providing the target for taken branches (Count)
system.cpu_cluster.cpus.branchPred.targetProvider_0::RAS       140234     10.51%    100.00% # The component providing the target for taken branches (Count)
system.cpu_cluster.cpus.branchPred.targetProvider_0::Indirect            0      0.00%    100.00% # The component providing the target for taken branches (Count)
system.cpu_cluster.cpus.branchPred.targetProvider_0::total      1333819                       # The component providing the target for taken branches (Count)
system.cpu_cluster.cpus.branchPred.targetWrong_0::NoBranch          483     74.31%     74.31% # Number of branches where the target was incorrect or not available at prediction time. (Count)
system.cpu_cluster.cpus.branchPred.targetWrong_0::Return          148     22.77%     97.08% # Number of branches where the target was incorrect or not available at prediction time. (Count)
system.cpu_cluster.cpus.branchPred.targetWrong_0::CallDirect           19      2.92%    100.00% # Number of branches where the target was incorrect or not available at prediction time. (Count)
system.cpu_cluster.cpus.branchPred.targetWrong_0::CallIndirect            0      0.00%    100.00% # Number of branches where the target was incorrect or not available at prediction time. (Count)
system.cpu_cluster.cpus.branchPred.targetWrong_0::DirectCond            0      0.00%    100.00% # Number of branches where the target was incorrect or not available at prediction time. (Count)
system.cpu_cluster.cpus.branchPred.targetWrong_0::DirectUncond            0      0.00%    100.00% # Number of branches where the target was incorrect or not available at prediction time. (Count)
system.cpu_cluster.cpus.branchPred.targetWrong_0::IndirectCond            0      0.00%    100.00% # Number of branches where the target was incorrect or not available at prediction time. (Count)
system.cpu_cluster.cpus.branchPred.targetWrong_0::IndirectUncond            0      0.00%    100.00% # Number of branches where the target was incorrect or not available at prediction time. (Count)
system.cpu_cluster.cpus.branchPred.targetWrong_0::total          650                       # Number of branches where the target was incorrect or not available at prediction time. (Count)
system.cpu_cluster.cpus.branchPred.condPredicted      1012982                       # Number of conditional branches predicted (Count)
system.cpu_cluster.cpus.branchPred.condPredictedTaken       351721                       # Number of conditional branches predicted as taken (Count)
system.cpu_cluster.cpus.branchPred.condIncorrect          657                       # Number of conditional branches incorrect (Count)
system.cpu_cluster.cpus.branchPred.predTakenBTBMiss          196                       # Number of branches predicted taken but missed in BTB (Count)
system.cpu_cluster.cpus.branchPred.NotTakenMispredicted          509                       # Number branches predicted 'not taken' but turned out to be taken (Count)
system.cpu_cluster.cpus.branchPred.TakenMispredicted          148                       # Number branches predicted taken but are actually not taken (Count)
system.cpu_cluster.cpus.branchPred.BTBLookups      1333819                       # Number of BTB lookups (Count)
system.cpu_cluster.cpus.branchPred.BTBUpdates          475                       # Number of BTB updates (Count)
system.cpu_cluster.cpus.branchPred.BTBHits       551744                       # Number of BTB hits (Count)
system.cpu_cluster.cpus.branchPred.BTBHitRatio     0.413657                       # BTB Hit Ratio (Ratio)
system.cpu_cluster.cpus.branchPred.BTBMispredicted          376                       # Number BTB mispredictions. No target found or target wrong (Count)
system.cpu_cluster.cpus.branchPred.indirectLookups           21                       # Number of indirect predictor lookups. (Count)
system.cpu_cluster.cpus.branchPred.indirectHits            0                       # Number of indirect target hits. (Count)
system.cpu_cluster.cpus.branchPred.indirectMisses           21                       # Number of indirect misses. (Count)
system.cpu_cluster.cpus.branchPred.indirectMispredicted            0                       # Number of mispredicted indirect branches. (Count)
system.cpu_cluster.cpus.branchPred.btb.lookups::NoBranch           12      0.00%      0.00% # Number of BTB lookups (Count)
system.cpu_cluster.cpus.branchPred.btb.lookups::Return       140234     10.51%     10.51% # Number of BTB lookups (Count)
system.cpu_cluster.cpus.branchPred.btb.lookups::CallDirect       140327     10.52%     21.04% # Number of BTB lookups (Count)
system.cpu_cluster.cpus.branchPred.btb.lookups::CallIndirect           20      0.00%     21.04% # Number of BTB lookups (Count)
system.cpu_cluster.cpus.branchPred.btb.lookups::DirectCond      1012970     75.95%     96.98% # Number of BTB lookups (Count)
system.cpu_cluster.cpus.branchPred.btb.lookups::DirectUncond        40255      3.02%    100.00% # Number of BTB lookups (Count)
system.cpu_cluster.cpus.branchPred.btb.lookups::IndirectCond            0      0.00%    100.00% # Number of BTB lookups (Count)
system.cpu_cluster.cpus.branchPred.btb.lookups::IndirectUncond            1      0.00%    100.00% # Number of BTB lookups (Count)
system.cpu_cluster.cpus.branchPred.btb.lookups::total      1333819                       # Number of BTB lookups (Count)
system.cpu_cluster.cpus.branchPred.btb.misses::NoBranch           12      0.00%      0.00% # Number of BTB misses (Count)
system.cpu_cluster.cpus.branchPred.btb.misses::Return       140234     17.93%     17.93% # Number of BTB misses (Count)
system.cpu_cluster.cpus.branchPred.btb.misses::CallDirect          210      0.03%     17.96% # Number of BTB misses (Count)
system.cpu_cluster.cpus.branchPred.btb.misses::CallIndirect           20      0.00%     17.96% # Number of BTB misses (Count)
system.cpu_cluster.cpus.branchPred.btb.misses::DirectCond       641449     82.02%     99.98% # Number of BTB misses (Count)
system.cpu_cluster.cpus.branchPred.btb.misses::DirectUncond          149      0.02%    100.00% # Number of BTB misses (Count)
system.cpu_cluster.cpus.branchPred.btb.misses::IndirectCond            0      0.00%    100.00% # Number of BTB misses (Count)
system.cpu_cluster.cpus.branchPred.btb.misses::IndirectUncond            1      0.00%    100.00% # Number of BTB misses (Count)
system.cpu_cluster.cpus.branchPred.btb.misses::total       782075                       # Number of BTB misses (Count)
system.cpu_cluster.cpus.branchPred.btb.updates::NoBranch            0      0.00%      0.00% # Number of BTB updates (Count)
system.cpu_cluster.cpus.branchPred.btb.updates::Return            0      0.00%      0.00% # Number of BTB updates (Count)
system.cpu_cluster.cpus.branchPred.btb.updates::CallDirect           58     12.21%     12.21% # Number of BTB updates (Count)
system.cpu_cluster.cpus.branchPred.btb.updates::CallIndirect            0      0.00%     12.21% # Number of BTB updates (Count)
system.cpu_cluster.cpus.branchPred.btb.updates::DirectCond          382     80.42%     92.63% # Number of BTB updates (Count)
system.cpu_cluster.cpus.branchPred.btb.updates::DirectUncond           35      7.37%    100.00% # Number of BTB updates (Count)
system.cpu_cluster.cpus.branchPred.btb.updates::IndirectCond            0      0.00%    100.00% # Number of BTB updates (Count)
system.cpu_cluster.cpus.branchPred.btb.updates::IndirectUncond            0      0.00%    100.00% # Number of BTB updates (Count)
system.cpu_cluster.cpus.branchPred.btb.updates::total          475                       # Number of BTB updates (Count)
system.cpu_cluster.cpus.branchPred.btb.mispredict::NoBranch            0      0.00%      0.00% # Number of BTB mispredictions. No target found or target wrong. (Count)
system.cpu_cluster.cpus.branchPred.btb.mispredict::Return            0      0.00%      0.00% # Number of BTB mispredictions. No target found or target wrong. (Count)
system.cpu_cluster.cpus.branchPred.btb.mispredict::CallDirect           58     12.21%     12.21% # Number of BTB mispredictions. No target found or target wrong. (Count)
system.cpu_cluster.cpus.branchPred.btb.mispredict::CallIndirect            0      0.00%     12.21% # Number of BTB mispredictions. No target found or target wrong. (Count)
system.cpu_cluster.cpus.branchPred.btb.mispredict::DirectCond          382     80.42%     92.63% # Number of BTB mispredictions. No target found or target wrong. (Count)
system.cpu_cluster.cpus.branchPred.btb.mispredict::DirectUncond           35      7.37%    100.00% # Number of BTB mispredictions. No target found or target wrong. (Count)
system.cpu_cluster.cpus.branchPred.btb.mispredict::IndirectCond            0      0.00%    100.00% # Number of BTB mispredictions. No target found or target wrong. (Count)
system.cpu_cluster.cpus.branchPred.btb.mispredict::IndirectUncond            0      0.00%    100.00% # Number of BTB mispredictions. No target found or target wrong. (Count)
system.cpu_cluster.cpus.branchPred.btb.mispredict::total          475                       # Number of BTB mispredictions. No target found or target wrong. (Count)
system.cpu_cluster.cpus.branchPred.btb.power_state.pwrStateResidencyTicks::UNDEFINED   2837583500                       # Cumulative time (in ticks) in various power states (Tick)
system.cpu_cluster.cpus.branchPred.indirectBranchPred.lookups           21                       # Number of lookups (Count)
system.cpu_cluster.cpus.branchPred.indirectBranchPred.hits            0                       # Number of hits of a tag (Count)
system.cpu_cluster.cpus.branchPred.indirectBranchPred.misses           21                       # Number of misses (Count)
system.cpu_cluster.cpus.branchPred.indirectBranchPred.targetRecords            8                       # Number of targets that where recorded/installed in the cache (Count)
system.cpu_cluster.cpus.branchPred.indirectBranchPred.indirectRecords           29                       # Number of indirect branches/calls recorded in the indirect hist (Count)
system.cpu_cluster.cpus.branchPred.indirectBranchPred.speculativeOverflows            6                       # Number of times more than the allowed capacity for speculative branches/calls where in flight and destroy the path history (Count)
system.cpu_cluster.cpus.branchPred.ras.pushes       140503                       # Number of times a PC was pushed onto the RAS (Count)
system.cpu_cluster.cpus.branchPred.ras.pops       140463                       # Number of times a PC was poped from the RAS (Count)
system.cpu_cluster.cpus.branchPred.ras.squashes          385                       # Number of times the stack operation was squashed due to wrong speculation. (Count)
system.cpu_cluster.cpus.branchPred.ras.used       140077                       # Number of times the RAS is the provider (Count)
system.cpu_cluster.cpus.branchPred.ras.correct       140058                       # Number of times the RAS is the provider and the prediction is correct (Count)
system.cpu_cluster.cpus.branchPred.ras.incorrect           19                       # Number of times the RAS is the provider and the prediction is wrong (Count)
system.cpu_cluster.cpus.commitStats0.numInsts     12294546                       # Number of instructions committed (thread level) (Count)
system.cpu_cluster.cpus.commitStats0.numOps     13175810                       # Number of ops (including micro ops) committed (thread level) (Count)
system.cpu_cluster.cpus.commitStats0.numInstsNotNOP            0                       # Number of instructions committed excluding NOPs or prefetches (Count)
system.cpu_cluster.cpus.commitStats0.numOpsNotNOP            0                       # Number of Ops (including micro ops) Simulated (Count)
system.cpu_cluster.cpus.commitStats0.cpi     0.923201                       # CPI: cycles per instruction (thread level) ((Cycle/Count))
system.cpu_cluster.cpus.commitStats0.ipc     1.083188                       # IPC: instructions per cycle (thread level) ((Count/Cycle))
system.cpu_cluster.cpus.commitStats0.numMemRefs            0                       # Number of memory references committed (Count)
system.cpu_cluster.cpus.commitStats0.numFpInsts            0                       # Number of float instructions (Count)
system.cpu_cluster.cpus.commitStats0.numIntInsts            0                       # Number of integer instructions (Count)
system.cpu_cluster.cpus.commitStats0.numLoadInsts            0                       # Number of load instructions (Count)
system.cpu_cluster.cpus.commitStats0.numStoreInsts            0                       # Number of store instructions (Count)
system.cpu_cluster.cpus.commitStats0.numVecInsts            0                       # Number of vector instructions (Count)
system.cpu_cluster.cpus.commitStats0.committedInstType::No_OpClass            2      0.00%      0.00% # Class of committed instruction. (Count)
system.cpu_cluster.cpus.commitStats0.committedInstType::IntAlu      9849181     74.75%     74.75% # Class of committed instruction. (Count)
system.cpu_cluster.cpus.commitStats0.committedInstType::IntMult       640626      4.86%     79.61% # Class of committed instruction. (Count)
system.cpu_cluster.cpus.commitStats0.committedInstType::IntDiv            2      0.00%     79.61% # Class of committed instruction. (Count)
system.cpu_cluster.cpus.commitStats0.committedInstType::FloatAdd        20000      0.15%     79.77% # Class of committed instruction. (Count)
system.cpu_cluster.cpus.commitStats0.committedInstType::FloatCmp        20000      0.15%     79.92% # Class of committed instruction. (Count)
system.cpu_cluster.cpus.commitStats0.committedInstType::FloatCvt        40000      0.30%     80.22% # Class of committed instruction. (Count)
system.cpu_cluster.cpus.commitStats0.committedInstType::FloatMult            0      0.00%     80.22% # Class of committed instruction. (Count)
system.cpu_cluster.cpus.commitStats0.committedInstType::FloatMultAcc        40000      0.30%     80.52% # Class of committed instruction. (Count)
system.cpu_cluster.cpus.commitStats0.committedInstType::FloatDiv        20000      0.15%     80.68% # Class of committed instruction. (Count)
system.cpu_cluster.cpus.commitStats0.committedInstType::FloatMisc       600001      4.55%     85.23% # Class of committed instruction. (Count)
system.cpu_cluster.cpus.commitStats0.committedInstType::FloatSqrt            0      0.00%     85.23% # Class of committed instruction. (Count)
system.cpu_cluster.cpus.commitStats0.committedInstType::SimdAdd           11      0.00%     85.23% # Class of committed instruction. (Count)
system.cpu_cluster.cpus.commitStats0.committedInstType::SimdAddAcc            0      0.00%     85.23% # Class of committed instruction. (Count)
system.cpu_cluster.cpus.commitStats0.committedInstType::SimdAlu       141513      1.07%     86.30% # Class of committed instruction. (Count)
system.cpu_cluster.cpus.commitStats0.committedInstType::SimdCmp        20223      0.15%     86.46% # Class of committed instruction. (Count)
system.cpu_cluster.cpus.commitStats0.committedInstType::SimdCvt            0      0.00%     86.46% # Class of committed instruction. (Count)
system.cpu_cluster.cpus.commitStats0.committedInstType::SimdMisc        20007      0.15%     86.61% # Class of committed instruction. (Count)
system.cpu_cluster.cpus.commitStats0.committedInstType::SimdMult            0      0.00%     86.61% # Class of committed instruction. (Count)
system.cpu_cluster.cpus.commitStats0.committedInstType::SimdMultAcc            0      0.00%     86.61% # Class of committed instruction. (Count)
system.cpu_cluster.cpus.commitStats0.committedInstType::SimdMatMultAcc            0      0.00%     86.61% # Class of committed instruction. (Count)
system.cpu_cluster.cpus.commitStats0.committedInstType::SimdShift        20215      0.15%     86.76% # Class of committed instruction. (Count)
system.cpu_cluster.cpus.commitStats0.committedInstType::SimdShiftAcc            0      0.00%     86.76% # Class of committed instruction. (Count)
system.cpu_cluster.cpus.commitStats0.committedInstType::SimdDiv            0      0.00%     86.76% # Class of committed instruction. (Count)
system.cpu_cluster.cpus.commitStats0.committedInstType::SimdSqrt            0      0.00%     86.76% # Class of committed instruction. (Count)
system.cpu_cluster.cpus.commitStats0.committedInstType::SimdFloatAdd            0      0.00%     86.76% # Class of committed instruction. (Count)
system.cpu_cluster.cpus.commitStats0.committedInstType::SimdFloatAlu            0      0.00%     86.76% # Class of committed instruction. (Count)
system.cpu_cluster.cpus.commitStats0.committedInstType::SimdFloatCmp            0      0.00%     86.76% # Class of committed instruction. (Count)
system.cpu_cluster.cpus.commitStats0.committedInstType::SimdFloatCvt            0      0.00%     86.76% # Class of committed instruction. (Count)
system.cpu_cluster.cpus.commitStats0.committedInstType::SimdFloatDiv            0      0.00%     86.76% # Class of committed instruction. (Count)
system.cpu_cluster.cpus.commitStats0.committedInstType::SimdFloatMisc            0      0.00%     86.76% # Class of committed instruction. (Count)
system.cpu_cluster.cpus.commitStats0.committedInstType::SimdFloatMult            0      0.00%     86.76% # Class of committed instruction. (Count)
system.cpu_cluster.cpus.commitStats0.committedInstType::SimdFloatMultAcc            0      0.00%     86.76% # Class of committed instruction. (Count)
system.cpu_cluster.cpus.commitStats0.committedInstType::SimdFloatMatMultAcc            0      0.00%     86.76% # Class of committed instruction. (Count)
system.cpu_cluster.cpus.commitStats0.committedInstType::SimdFloatSqrt            0      0.00%     86.76% # Class of committed instruction. (Count)
system.cpu_cluster.cpus.commitStats0.committedInstType::SimdReduceAdd            0      0.00%     86.76% # Class of committed instruction. (Count)
system.cpu_cluster.cpus.commitStats0.committedInstType::SimdReduceAlu            0      0.00%     86.76% # Class of committed instruction. (Count)
system.cpu_cluster.cpus.commitStats0.committedInstType::SimdReduceCmp            0      0.00%     86.76% # Class of committed instruction. (Count)
system.cpu_cluster.cpus.commitStats0.committedInstType::SimdFloatReduceAdd            0      0.00%     86.76% # Class of committed instruction. (Count)
system.cpu_cluster.cpus.commitStats0.committedInstType::SimdFloatReduceCmp            0      0.00%     86.76% # Class of committed instruction. (Count)
system.cpu_cluster.cpus.commitStats0.committedInstType::SimdAes            0      0.00%     86.76% # Class of committed instruction. (Count)
system.cpu_cluster.cpus.commitStats0.committedInstType::SimdAesMix            0      0.00%     86.76% # Class of committed instruction. (Count)
system.cpu_cluster.cpus.commitStats0.committedInstType::SimdSha1Hash            0      0.00%     86.76% # Class of committed instruction. (Count)
system.cpu_cluster.cpus.commitStats0.committedInstType::SimdSha1Hash2            0      0.00%     86.76% # Class of committed instruction. (Count)
system.cpu_cluster.cpus.commitStats0.committedInstType::SimdSha256Hash            0      0.00%     86.76% # Class of committed instruction. (Count)
system.cpu_cluster.cpus.commitStats0.committedInstType::SimdSha256Hash2            0      0.00%     86.76% # Class of committed instruction. (Count)
system.cpu_cluster.cpus.commitStats0.committedInstType::SimdShaSigma2            0      0.00%     86.76% # Class of committed instruction. (Count)
system.cpu_cluster.cpus.commitStats0.committedInstType::SimdShaSigma3            0      0.00%     86.76% # Class of committed instruction. (Count)
system.cpu_cluster.cpus.commitStats0.committedInstType::SimdPredAlu            0      0.00%     86.76% # Class of committed instruction. (Count)
system.cpu_cluster.cpus.commitStats0.committedInstType::Matrix            0      0.00%     86.76% # Class of committed instruction. (Count)
system.cpu_cluster.cpus.commitStats0.committedInstType::MatrixMov            0      0.00%     86.76% # Class of committed instruction. (Count)
system.cpu_cluster.cpus.commitStats0.committedInstType::MatrixOP            0      0.00%     86.76% # Class of committed instruction. (Count)
system.cpu_cluster.cpus.commitStats0.committedInstType::MemRead       701806      5.33%     92.09% # Class of committed instruction. (Count)
system.cpu_cluster.cpus.commitStats0.committedInstType::MemWrite      1042223      7.91%    100.00% # Class of committed instruction. (Count)
system.cpu_cluster.cpus.commitStats0.committedInstType::FloatMemRead            0      0.00%    100.00% # Class of committed instruction. (Count)
system.cpu_cluster.cpus.commitStats0.committedInstType::FloatMemWrite            0      0.00%    100.00% # Class of committed instruction. (Count)
system.cpu_cluster.cpus.commitStats0.committedInstType::IprAccess            0      0.00%    100.00% # Class of committed instruction. (Count)
system.cpu_cluster.cpus.commitStats0.committedInstType::InstPrefetch            0      0.00%    100.00% # Class of committed instruction. (Count)
system.cpu_cluster.cpus.commitStats0.committedInstType::VectorUnitStrideLoad            0      0.00%    100.00% # Class of committed instruction. (Count)
system.cpu_cluster.cpus.commitStats0.committedInstType::VectorUnitStrideStore            0      0.00%    100.00% # Class of committed instruction. (Count)
system.cpu_cluster.cpus.commitStats0.committedInstType::VectorUnitStrideMaskLoad            0      0.00%    100.00% # Class of committed instruction. (Count)
system.cpu_cluster.cpus.commitStats0.committedInstType::VectorUnitStrideMaskStore            0      0.00%    100.00% # Class of committed instruction. (Count)
system.cpu_cluster.cpus.commitStats0.committedInstType::VectorStridedLoad            0      0.00%    100.00% # Class of committed instruction. (Count)
system.cpu_cluster.cpus.commitStats0.committedInstType::VectorStridedStore            0      0.00%    100.00% # Class of committed instruction. (Count)
system.cpu_cluster.cpus.commitStats0.committedInstType::VectorIndexedLoad            0      0.00%    100.00% # Class of committed instruction. (Count)
system.cpu_cluster.cpus.commitStats0.committedInstType::VectorIndexedStore            0      0.00%    100.00% # Class of committed instruction. (Count)
system.cpu_cluster.cpus.commitStats0.committedInstType::VectorUnitStrideFaultOnlyFirstLoad            0      0.00%    100.00% # Class of committed instruction. (Count)
system.cpu_cluster.cpus.commitStats0.committedInstType::VectorWholeRegisterLoad            0      0.00%    100.00% # Class of committed instruction. (Count)
system.cpu_cluster.cpus.commitStats0.committedInstType::VectorWholeRegisterStore            0      0.00%    100.00% # Class of committed instruction. (Count)
system.cpu_cluster.cpus.commitStats0.committedInstType::VectorIntegerArith            0      0.00%    100.00% # Class of committed instruction. (Count)
system.cpu_cluster.cpus.commitStats0.committedInstType::VectorFloatArith            0      0.00%    100.00% # Class of committed instruction. (Count)
system.cpu_cluster.cpus.commitStats0.committedInstType::VectorFloatConvert            0      0.00%    100.00% # Class of committed instruction. (Count)
system.cpu_cluster.cpus.commitStats0.committedInstType::VectorIntegerReduce            0      0.00%    100.00% # Class of committed instruction. (Count)
system.cpu_cluster.cpus.commitStats0.committedInstType::VectorFloatReduce            0      0.00%    100.00% # Class of committed instruction. (Count)
system.cpu_cluster.cpus.commitStats0.committedInstType::VectorMisc            0      0.00%    100.00% # Class of committed instruction. (Count)
system.cpu_cluster.cpus.commitStats0.committedInstType::VectorIntegerExtension            0      0.00%    100.00% # Class of committed instruction. (Count)
system.cpu_cluster.cpus.commitStats0.committedInstType::VectorConfig            0      0.00%    100.00% # Class of committed instruction. (Count)
system.cpu_cluster.cpus.commitStats0.committedInstType::total     13175810                       # Class of committed instruction. (Count)
system.cpu_cluster.cpus.dcache.demandHits::cpu_cluster.cpus.data      1752769                       # number of demand (read+write) hits (Count)
system.cpu_cluster.cpus.dcache.demandHits::total      1752769                       # number of demand (read+write) hits (Count)
system.cpu_cluster.cpus.dcache.overallHits::cpu_cluster.cpus.data      1752769                       # number of overall hits (Count)
system.cpu_cluster.cpus.dcache.overallHits::total      1752769                       # number of overall hits (Count)
system.cpu_cluster.cpus.dcache.demandMisses::cpu_cluster.cpus.data         1648                       # number of demand (read+write) misses (Count)
system.cpu_cluster.cpus.dcache.demandMisses::total         1648                       # number of demand (read+write) misses (Count)
system.cpu_cluster.cpus.dcache.overallMisses::cpu_cluster.cpus.data         1648                       # number of overall misses (Count)
system.cpu_cluster.cpus.dcache.overallMisses::total         1648                       # number of overall misses (Count)
system.cpu_cluster.cpus.dcache.demandMissLatency::cpu_cluster.cpus.data    107775500                       # number of demand (read+write) miss ticks (Tick)
system.cpu_cluster.cpus.dcache.demandMissLatency::total    107775500                       # number of demand (read+write) miss ticks (Tick)
system.cpu_cluster.cpus.dcache.overallMissLatency::cpu_cluster.cpus.data    107775500                       # number of overall miss ticks (Tick)
system.cpu_cluster.cpus.dcache.overallMissLatency::total    107775500                       # number of overall miss ticks (Tick)
system.cpu_cluster.cpus.dcache.demandAccesses::cpu_cluster.cpus.data      1754417                       # number of demand (read+write) accesses (Count)
system.cpu_cluster.cpus.dcache.demandAccesses::total      1754417                       # number of demand (read+write) accesses (Count)
system.cpu_cluster.cpus.dcache.overallAccesses::cpu_cluster.cpus.data      1754417                       # number of overall (read+write) accesses (Count)
system.cpu_cluster.cpus.dcache.overallAccesses::total      1754417                       # number of overall (read+write) accesses (Count)
system.cpu_cluster.cpus.dcache.demandMissRate::cpu_cluster.cpus.data     0.000939                       # miss rate for demand accesses (Ratio)
system.cpu_cluster.cpus.dcache.demandMissRate::total     0.000939                       # miss rate for demand accesses (Ratio)
system.cpu_cluster.cpus.dcache.overallMissRate::cpu_cluster.cpus.data     0.000939                       # miss rate for overall accesses (Ratio)
system.cpu_cluster.cpus.dcache.overallMissRate::total     0.000939                       # miss rate for overall accesses (Ratio)
system.cpu_cluster.cpus.dcache.demandAvgMissLatency::cpu_cluster.cpus.data 65397.754854                       # average overall miss latency in ticks ((Tick/Count))
system.cpu_cluster.cpus.dcache.demandAvgMissLatency::total 65397.754854                       # average overall miss latency in ticks ((Tick/Count))
system.cpu_cluster.cpus.dcache.overallAvgMissLatency::cpu_cluster.cpus.data 65397.754854                       # average overall miss latency ((Tick/Count))
system.cpu_cluster.cpus.dcache.overallAvgMissLatency::total 65397.754854                       # average overall miss latency ((Tick/Count))
system.cpu_cluster.cpus.dcache.blockedCycles::no_mshrs            0                       # number of cycles access was blocked (Cycle)
system.cpu_cluster.cpus.dcache.blockedCycles::no_targets            0                       # number of cycles access was blocked (Cycle)
system.cpu_cluster.cpus.dcache.blockedCauses::no_mshrs            0                       # number of times access was blocked (Count)
system.cpu_cluster.cpus.dcache.blockedCauses::no_targets            0                       # number of times access was blocked (Count)
system.cpu_cluster.cpus.dcache.avgBlocked::no_mshrs          nan                       # average number of cycles each access was blocked ((Cycle/Count))
system.cpu_cluster.cpus.dcache.avgBlocked::no_targets          nan                       # average number of cycles each access was blocked ((Cycle/Count))
system.cpu_cluster.cpus.dcache.writebacks::writebacks         2160                       # number of writebacks (Count)
system.cpu_cluster.cpus.dcache.writebacks::total         2160                       # number of writebacks (Count)
system.cpu_cluster.cpus.dcache.demandMshrHits::cpu_cluster.cpus.data          140                       # number of demand (read+write) MSHR hits (Count)
system.cpu_cluster.cpus.dcache.demandMshrHits::total          140                       # number of demand (read+write) MSHR hits (Count)
system.cpu_cluster.cpus.dcache.overallMshrHits::cpu_cluster.cpus.data          140                       # number of overall MSHR hits (Count)
system.cpu_cluster.cpus.dcache.overallMshrHits::total          140                       # number of overall MSHR hits (Count)
system.cpu_cluster.cpus.dcache.demandMshrMisses::cpu_cluster.cpus.data         1508                       # number of demand (read+write) MSHR misses (Count)
system.cpu_cluster.cpus.dcache.demandMshrMisses::total         1508                       # number of demand (read+write) MSHR misses (Count)
system.cpu_cluster.cpus.dcache.overallMshrMisses::cpu_cluster.cpus.data         1508                       # number of overall MSHR misses (Count)
system.cpu_cluster.cpus.dcache.overallMshrMisses::cpu_cluster.cpus.dcache.prefetcher         1205                       # number of overall MSHR misses (Count)
system.cpu_cluster.cpus.dcache.overallMshrMisses::total         2713                       # number of overall MSHR misses (Count)
system.cpu_cluster.cpus.dcache.demandMshrMissLatency::cpu_cluster.cpus.data     99488000                       # number of demand (read+write) MSHR miss ticks (Tick)
system.cpu_cluster.cpus.dcache.demandMshrMissLatency::total     99488000                       # number of demand (read+write) MSHR miss ticks (Tick)
system.cpu_cluster.cpus.dcache.overallMshrMissLatency::cpu_cluster.cpus.data     99488000                       # number of overall MSHR miss ticks (Tick)
system.cpu_cluster.cpus.dcache.overallMshrMissLatency::cpu_cluster.cpus.dcache.prefetcher     70073795                       # number of overall MSHR miss ticks (Tick)
system.cpu_cluster.cpus.dcache.overallMshrMissLatency::total    169561795                       # number of overall MSHR miss ticks (Tick)
system.cpu_cluster.cpus.dcache.demandMshrMissRate::cpu_cluster.cpus.data     0.000860                       # mshr miss ratio for demand accesses (Ratio)
system.cpu_cluster.cpus.dcache.demandMshrMissRate::total     0.000860                       # mshr miss ratio for demand accesses (Ratio)
system.cpu_cluster.cpus.dcache.overallMshrMissRate::cpu_cluster.cpus.data     0.000860                       # mshr miss ratio for overall accesses (Ratio)
system.cpu_cluster.cpus.dcache.overallMshrMissRate::cpu_cluster.cpus.dcache.prefetcher          inf                       # mshr miss ratio for overall accesses (Ratio)
system.cpu_cluster.cpus.dcache.overallMshrMissRate::total     0.001546                       # mshr miss ratio for overall accesses (Ratio)
system.cpu_cluster.cpus.dcache.demandAvgMshrMissLatency::cpu_cluster.cpus.data 65973.474801                       # average overall mshr miss latency ((Tick/Count))
system.cpu_cluster.cpus.dcache.demandAvgMshrMissLatency::total 65973.474801                       # average overall mshr miss latency ((Tick/Count))
system.cpu_cluster.cpus.dcache.overallAvgMshrMissLatency::cpu_cluster.cpus.data 65973.474801                       # average overall mshr miss latency ((Tick/Count))
system.cpu_cluster.cpus.dcache.overallAvgMshrMissLatency::cpu_cluster.cpus.dcache.prefetcher 58152.526971                       # average overall mshr miss latency ((Tick/Count))
system.cpu_cluster.cpus.dcache.overallAvgMshrMissLatency::total 62499.740140                       # average overall mshr miss latency ((Tick/Count))
system.cpu_cluster.cpus.dcache.replacements         2202                       # number of replacements (Count)
system.cpu_cluster.cpus.dcache.HardPFReq.mshrMisses::cpu_cluster.cpus.dcache.prefetcher         1205                       # number of HardPFReq MSHR misses (Count)
system.cpu_cluster.cpus.dcache.HardPFReq.mshrMisses::total         1205                       # number of HardPFReq MSHR misses (Count)
system.cpu_cluster.cpus.dcache.HardPFReq.mshrMissLatency::cpu_cluster.cpus.dcache.prefetcher     70073795                       # number of HardPFReq MSHR miss ticks (Tick)
system.cpu_cluster.cpus.dcache.HardPFReq.mshrMissLatency::total     70073795                       # number of HardPFReq MSHR miss ticks (Tick)
system.cpu_cluster.cpus.dcache.HardPFReq.mshrMissRate::cpu_cluster.cpus.dcache.prefetcher          inf                       # mshr miss rate for HardPFReq accesses (Ratio)
system.cpu_cluster.cpus.dcache.HardPFReq.mshrMissRate::total          inf                       # mshr miss rate for HardPFReq accesses (Ratio)
system.cpu_cluster.cpus.dcache.HardPFReq.avgMshrMissLatency::cpu_cluster.cpus.dcache.prefetcher 58152.526971                       # average HardPFReq mshr miss latency ((Tick/Count))
system.cpu_cluster.cpus.dcache.HardPFReq.avgMshrMissLatency::total 58152.526971                       # average HardPFReq mshr miss latency ((Tick/Count))
system.cpu_cluster.cpus.dcache.LoadLockedReq.hits::cpu_cluster.cpus.data           15                       # number of LoadLockedReq hits (Count)
system.cpu_cluster.cpus.dcache.LoadLockedReq.hits::total           15                       # number of LoadLockedReq hits (Count)
system.cpu_cluster.cpus.dcache.LoadLockedReq.misses::cpu_cluster.cpus.data            1                       # number of LoadLockedReq misses (Count)
system.cpu_cluster.cpus.dcache.LoadLockedReq.misses::total            1                       # number of LoadLockedReq misses (Count)
system.cpu_cluster.cpus.dcache.LoadLockedReq.missLatency::cpu_cluster.cpus.data        58000                       # number of LoadLockedReq miss ticks (Tick)
system.cpu_cluster.cpus.dcache.LoadLockedReq.missLatency::total        58000                       # number of LoadLockedReq miss ticks (Tick)
system.cpu_cluster.cpus.dcache.LoadLockedReq.accesses::cpu_cluster.cpus.data           16                       # number of LoadLockedReq accesses(hits+misses) (Count)
system.cpu_cluster.cpus.dcache.LoadLockedReq.accesses::total           16                       # number of LoadLockedReq accesses(hits+misses) (Count)
system.cpu_cluster.cpus.dcache.LoadLockedReq.missRate::cpu_cluster.cpus.data     0.062500                       # miss rate for LoadLockedReq accesses (Ratio)
system.cpu_cluster.cpus.dcache.LoadLockedReq.missRate::total     0.062500                       # miss rate for LoadLockedReq accesses (Ratio)
system.cpu_cluster.cpus.dcache.LoadLockedReq.avgMissLatency::cpu_cluster.cpus.data        58000                       # average LoadLockedReq miss latency ((Tick/Count))
system.cpu_cluster.cpus.dcache.LoadLockedReq.avgMissLatency::total        58000                       # average LoadLockedReq miss latency ((Tick/Count))
system.cpu_cluster.cpus.dcache.LoadLockedReq.mshrMisses::cpu_cluster.cpus.data            1                       # number of LoadLockedReq MSHR misses (Count)
system.cpu_cluster.cpus.dcache.LoadLockedReq.mshrMisses::total            1                       # number of LoadLockedReq MSHR misses (Count)
system.cpu_cluster.cpus.dcache.LoadLockedReq.mshrMissLatency::cpu_cluster.cpus.data        57750                       # number of LoadLockedReq MSHR miss ticks (Tick)
system.cpu_cluster.cpus.dcache.LoadLockedReq.mshrMissLatency::total        57750                       # number of LoadLockedReq MSHR miss ticks (Tick)
system.cpu_cluster.cpus.dcache.LoadLockedReq.mshrMissRate::cpu_cluster.cpus.data     0.062500                       # mshr miss rate for LoadLockedReq accesses (Ratio)
system.cpu_cluster.cpus.dcache.LoadLockedReq.mshrMissRate::total     0.062500                       # mshr miss rate for LoadLockedReq accesses (Ratio)
system.cpu_cluster.cpus.dcache.LoadLockedReq.avgMshrMissLatency::cpu_cluster.cpus.data        57750                       # average LoadLockedReq mshr miss latency ((Tick/Count))
system.cpu_cluster.cpus.dcache.LoadLockedReq.avgMshrMissLatency::total        57750                       # average LoadLockedReq mshr miss latency ((Tick/Count))
system.cpu_cluster.cpus.dcache.ReadReq.hits::cpu_cluster.cpus.data       712187                       # number of ReadReq hits (Count)
system.cpu_cluster.cpus.dcache.ReadReq.hits::total       712187                       # number of ReadReq hits (Count)
system.cpu_cluster.cpus.dcache.ReadReq.misses::cpu_cluster.cpus.data           66                       # number of ReadReq misses (Count)
system.cpu_cluster.cpus.dcache.ReadReq.misses::total           66                       # number of ReadReq misses (Count)
system.cpu_cluster.cpus.dcache.ReadReq.missLatency::cpu_cluster.cpus.data      3844500                       # number of ReadReq miss ticks (Tick)
system.cpu_cluster.cpus.dcache.ReadReq.missLatency::total      3844500                       # number of ReadReq miss ticks (Tick)
system.cpu_cluster.cpus.dcache.ReadReq.accesses::cpu_cluster.cpus.data       712253                       # number of ReadReq accesses(hits+misses) (Count)
system.cpu_cluster.cpus.dcache.ReadReq.accesses::total       712253                       # number of ReadReq accesses(hits+misses) (Count)
system.cpu_cluster.cpus.dcache.ReadReq.missRate::cpu_cluster.cpus.data     0.000093                       # miss rate for ReadReq accesses (Ratio)
system.cpu_cluster.cpus.dcache.ReadReq.missRate::total     0.000093                       # miss rate for ReadReq accesses (Ratio)
system.cpu_cluster.cpus.dcache.ReadReq.avgMissLatency::cpu_cluster.cpus.data        58250                       # average ReadReq miss latency ((Tick/Count))
system.cpu_cluster.cpus.dcache.ReadReq.avgMissLatency::total        58250                       # average ReadReq miss latency ((Tick/Count))
system.cpu_cluster.cpus.dcache.ReadReq.mshrHits::cpu_cluster.cpus.data            3                       # number of ReadReq MSHR hits (Count)
system.cpu_cluster.cpus.dcache.ReadReq.mshrHits::total            3                       # number of ReadReq MSHR hits (Count)
system.cpu_cluster.cpus.dcache.ReadReq.mshrMisses::cpu_cluster.cpus.data           63                       # number of ReadReq MSHR misses (Count)
system.cpu_cluster.cpus.dcache.ReadReq.mshrMisses::total           63                       # number of ReadReq MSHR misses (Count)
system.cpu_cluster.cpus.dcache.ReadReq.mshrMissLatency::cpu_cluster.cpus.data      3661250                       # number of ReadReq MSHR miss ticks (Tick)
system.cpu_cluster.cpus.dcache.ReadReq.mshrMissLatency::total      3661250                       # number of ReadReq MSHR miss ticks (Tick)
system.cpu_cluster.cpus.dcache.ReadReq.mshrMissRate::cpu_cluster.cpus.data     0.000088                       # mshr miss rate for ReadReq accesses (Ratio)
system.cpu_cluster.cpus.dcache.ReadReq.mshrMissRate::total     0.000088                       # mshr miss rate for ReadReq accesses (Ratio)
system.cpu_cluster.cpus.dcache.ReadReq.avgMshrMissLatency::cpu_cluster.cpus.data 58115.079365                       # average ReadReq mshr miss latency ((Tick/Count))
system.cpu_cluster.cpus.dcache.ReadReq.avgMshrMissLatency::total 58115.079365                       # average ReadReq mshr miss latency ((Tick/Count))
system.cpu_cluster.cpus.dcache.StoreCondReq.hits::cpu_cluster.cpus.data           16                       # number of StoreCondReq hits (Count)
system.cpu_cluster.cpus.dcache.StoreCondReq.hits::total           16                       # number of StoreCondReq hits (Count)
system.cpu_cluster.cpus.dcache.StoreCondReq.accesses::cpu_cluster.cpus.data           16                       # number of StoreCondReq accesses(hits+misses) (Count)
system.cpu_cluster.cpus.dcache.StoreCondReq.accesses::total           16                       # number of StoreCondReq accesses(hits+misses) (Count)
system.cpu_cluster.cpus.dcache.WriteReq.hits::cpu_cluster.cpus.data      1040582                       # number of WriteReq hits (Count)
system.cpu_cluster.cpus.dcache.WriteReq.hits::total      1040582                       # number of WriteReq hits (Count)
system.cpu_cluster.cpus.dcache.WriteReq.misses::cpu_cluster.cpus.data         1582                       # number of WriteReq misses (Count)
system.cpu_cluster.cpus.dcache.WriteReq.misses::total         1582                       # number of WriteReq misses (Count)
system.cpu_cluster.cpus.dcache.WriteReq.missLatency::cpu_cluster.cpus.data    103931000                       # number of WriteReq miss ticks (Tick)
system.cpu_cluster.cpus.dcache.WriteReq.missLatency::total    103931000                       # number of WriteReq miss ticks (Tick)
system.cpu_cluster.cpus.dcache.WriteReq.accesses::cpu_cluster.cpus.data      1042164                       # number of WriteReq accesses(hits+misses) (Count)
system.cpu_cluster.cpus.dcache.WriteReq.accesses::total      1042164                       # number of WriteReq accesses(hits+misses) (Count)
system.cpu_cluster.cpus.dcache.WriteReq.missRate::cpu_cluster.cpus.data     0.001518                       # miss rate for WriteReq accesses (Ratio)
system.cpu_cluster.cpus.dcache.WriteReq.missRate::total     0.001518                       # miss rate for WriteReq accesses (Ratio)
system.cpu_cluster.cpus.dcache.WriteReq.avgMissLatency::cpu_cluster.cpus.data 65695.954488                       # average WriteReq miss latency ((Tick/Count))
system.cpu_cluster.cpus.dcache.WriteReq.avgMissLatency::total 65695.954488                       # average WriteReq miss latency ((Tick/Count))
system.cpu_cluster.cpus.dcache.WriteReq.mshrHits::cpu_cluster.cpus.data          137                       # number of WriteReq MSHR hits (Count)
system.cpu_cluster.cpus.dcache.WriteReq.mshrHits::total          137                       # number of WriteReq MSHR hits (Count)
system.cpu_cluster.cpus.dcache.WriteReq.mshrMisses::cpu_cluster.cpus.data         1445                       # number of WriteReq MSHR misses (Count)
system.cpu_cluster.cpus.dcache.WriteReq.mshrMisses::total         1445                       # number of WriteReq MSHR misses (Count)
system.cpu_cluster.cpus.dcache.WriteReq.mshrMissLatency::cpu_cluster.cpus.data     95826750                       # number of WriteReq MSHR miss ticks (Tick)
system.cpu_cluster.cpus.dcache.WriteReq.mshrMissLatency::total     95826750                       # number of WriteReq MSHR miss ticks (Tick)
system.cpu_cluster.cpus.dcache.WriteReq.mshrMissRate::cpu_cluster.cpus.data     0.001387                       # mshr miss rate for WriteReq accesses (Ratio)
system.cpu_cluster.cpus.dcache.WriteReq.mshrMissRate::total     0.001387                       # mshr miss rate for WriteReq accesses (Ratio)
system.cpu_cluster.cpus.dcache.WriteReq.avgMshrMissLatency::cpu_cluster.cpus.data 66316.089965                       # average WriteReq mshr miss latency ((Tick/Count))
system.cpu_cluster.cpus.dcache.WriteReq.avgMshrMissLatency::total 66316.089965                       # average WriteReq mshr miss latency ((Tick/Count))
system.cpu_cluster.cpus.dcache.power_state.pwrStateResidencyTicks::UNDEFINED   2837583500                       # Cumulative time (in ticks) in various power states (Tick)
system.cpu_cluster.cpus.dcache.prefetcher.demandMshrMisses         1508                       # demands not covered by prefetchs (Count)
system.cpu_cluster.cpus.dcache.prefetcher.pfIssued         1205                       # number of hwpf issued (Count)
system.cpu_cluster.cpus.dcache.prefetcher.pfUseful         1204                       # number of useful prefetch (Count)
system.cpu_cluster.cpus.dcache.prefetcher.pfUsefulButMiss            0                       # number of hit on prefetch but cache block is not in an usable state (Count)
system.cpu_cluster.cpus.dcache.prefetcher.accuracy     0.999170                       # accuracy of the prefetcher (Count)
system.cpu_cluster.cpus.dcache.prefetcher.coverage     0.443953                       # coverage brought by this prefetcher (Count)
system.cpu_cluster.cpus.dcache.prefetcher.pfHitInCache            0                       # number of prefetches hitting in cache (Count)
system.cpu_cluster.cpus.dcache.prefetcher.pfHitInMSHR            0                       # number of prefetches hitting in a MSHR (Count)
system.cpu_cluster.cpus.dcache.prefetcher.pfHitInWB            0                       # number of prefetches hit in the Write Buffer (Count)
system.cpu_cluster.cpus.dcache.prefetcher.pfLate            0                       # number of late prefetches (hitting in cache, MSHR or WB) (Count)
system.cpu_cluster.cpus.dcache.prefetcher.pfIdentified         1205                       # number of prefetch candidates identified (Count)
system.cpu_cluster.cpus.dcache.prefetcher.pfBufferHit            0                       # number of redundant prefetches already in prefetch queue (Count)
system.cpu_cluster.cpus.dcache.prefetcher.pfInCache            0                       # number of redundant prefetches already in cache/mshr dropped (Count)
system.cpu_cluster.cpus.dcache.prefetcher.pfRemovedDemand            0                       # number of prefetches dropped due to a demand for the same address (Count)
system.cpu_cluster.cpus.dcache.prefetcher.pfRemovedFull            0                       # number of prefetches dropped due to prefetch queue size (Count)
system.cpu_cluster.cpus.dcache.prefetcher.pfSpanPage           27                       # number of prefetches that crossed the page (Count)
system.cpu_cluster.cpus.dcache.prefetcher.pfUsefulSpanPage            0                       # number of prefetches that is useful and crossed the page (Count)
system.cpu_cluster.cpus.dcache.prefetcher.power_state.pwrStateResidencyTicks::UNDEFINED   2837583500                       # Cumulative time (in ticks) in various power states (Tick)
system.cpu_cluster.cpus.dcache.tags.tagsInUse   484.344176                       # Average ticks per tags in use ((Tick/Count))
system.cpu_cluster.cpus.dcache.tags.totalRefs        18517                       # Total number of references to valid blocks. (Count)
system.cpu_cluster.cpus.dcache.tags.sampledRefs         2202                       # Sample count of references to valid blocks. (Count)
system.cpu_cluster.cpus.dcache.tags.avgRefs     8.409173                       # Average number of references to valid blocks. ((Count/Count))
system.cpu_cluster.cpus.dcache.tags.warmupTick        85000                       # The tick when the warmup percentage was hit. (Tick)
system.cpu_cluster.cpus.dcache.tags.occupancies::cpu_cluster.cpus.data   296.664747                       # Average occupied blocks per tick, per requestor ((Count/Tick))
system.cpu_cluster.cpus.dcache.tags.occupancies::cpu_cluster.cpus.dcache.prefetcher   187.679430                       # Average occupied blocks per tick, per requestor ((Count/Tick))
system.cpu_cluster.cpus.dcache.tags.avgOccs::cpu_cluster.cpus.data     0.579423                       # Average percentage of cache occupancy ((Ratio/Tick))
system.cpu_cluster.cpus.dcache.tags.avgOccs::cpu_cluster.cpus.dcache.prefetcher     0.366561                       # Average percentage of cache occupancy ((Ratio/Tick))
system.cpu_cluster.cpus.dcache.tags.avgOccs::total     0.945985                       # Average percentage of cache occupancy ((Ratio/Tick))
system.cpu_cluster.cpus.dcache.tags.occupanciesTaskId::1022          199                       # Occupied blocks per task id (Count)
system.cpu_cluster.cpus.dcache.tags.occupanciesTaskId::1024          313                       # Occupied blocks per task id (Count)
system.cpu_cluster.cpus.dcache.tags.ageTaskId_1022::1           36                       # Occupied blocks per task id, per block age (Count)
system.cpu_cluster.cpus.dcache.tags.ageTaskId_1022::2          163                       # Occupied blocks per task id, per block age (Count)
system.cpu_cluster.cpus.dcache.tags.ageTaskId_1024::0            2                       # Occupied blocks per task id, per block age (Count)
system.cpu_cluster.cpus.dcache.tags.ageTaskId_1024::1           49                       # Occupied blocks per task id, per block age (Count)
system.cpu_cluster.cpus.dcache.tags.ageTaskId_1024::2          176                       # Occupied blocks per task id, per block age (Count)
system.cpu_cluster.cpus.dcache.tags.ageTaskId_1024::3           86                       # Occupied blocks per task id, per block age (Count)
system.cpu_cluster.cpus.dcache.tags.ratioOccsTaskId::1022     0.388672                       # Ratio of occupied blocks and all blocks, per task id (Ratio)
system.cpu_cluster.cpus.dcache.tags.ratioOccsTaskId::1024     0.611328                       # Ratio of occupied blocks and all blocks, per task id (Ratio)
system.cpu_cluster.cpus.dcache.tags.tagAccesses      7020510                       # Number of tag accesses (Count)
system.cpu_cluster.cpus.dcache.tags.dataAccesses      7020510                       # Number of data accesses (Count)
system.cpu_cluster.cpus.dcache.tags.power_state.pwrStateResidencyTicks::UNDEFINED   2837583500                       # Cumulative time (in ticks) in various power states (Tick)
system.cpu_cluster.cpus.executeStats0.numInsts            0                       # Number of executed instructions (Count)
system.cpu_cluster.cpus.executeStats0.numNop            0                       # Number of nop insts executed (Count)
system.cpu_cluster.cpus.executeStats0.numBranches            0                       # Number of branches executed (Count)
system.cpu_cluster.cpus.executeStats0.numLoadInsts            0                       # Number of load instructions executed (Count)
system.cpu_cluster.cpus.executeStats0.numStoreInsts            0                       # Number of stores executed (Count)
system.cpu_cluster.cpus.executeStats0.instRate            0                       # Inst execution rate ((Count/Cycle))
system.cpu_cluster.cpus.executeStats0.numFpRegWrites            0                       # Number of times the floating registers were written (Count)
system.cpu_cluster.cpus.executeStats0.numMemRefs            0                       # Number of memory refs (Count)
system.cpu_cluster.cpus.executeStats0.numVecAluAccesses            0                       # Number of vector alu accesses (Count)
system.cpu_cluster.cpus.executeStats0.numDiscardedOps         2255                       # Number of ops (including micro ops) which were discarded before commit (Count)
system.cpu_cluster.cpus.fetch2.intInstructions      9143227                       # Number of integer instructions successfully decoded (Count)
system.cpu_cluster.cpus.fetch2.fpInstructions            0                       # Number of floating point instructions successfully decoded (Count)
system.cpu_cluster.cpus.fetch2.vecInstructions       943588                       # Number of SIMD instructions successfully decoded (Count)
system.cpu_cluster.cpus.fetch2.loadInstructions       121721                       # Number of memory load instructions successfully decoded (Count)
system.cpu_cluster.cpus.fetch2.storeInstructions       281684                       # Number of memory store instructions successfully decoded (Count)
system.cpu_cluster.cpus.fetch2.amoInstructions            0                       # Number of memory atomic instructions successfully decoded (Count)
system.cpu_cluster.cpus.fetchStats0.numInsts            0                       # Number of instructions fetched (thread level) (Count)
system.cpu_cluster.cpus.fetchStats0.numOps            0                       # Number of ops (including micro ops) fetched (thread level) (Count)
system.cpu_cluster.cpus.fetchStats0.fetchRate            0                       # Number of inst fetches per cycle ((Count/Cycle))
system.cpu_cluster.cpus.fetchStats0.branchRate            0                       # Number of branch fetches per cycle (Ratio)
system.cpu_cluster.cpus.fetchStats0.numFetchSuspends            0                       # Number of times Execute suspended instruction fetching (Count)
system.cpu_cluster.cpus.icache.demandHits::cpu_cluster.cpus.inst      2436860                       # number of demand (read+write) hits (Count)
system.cpu_cluster.cpus.icache.demandHits::total      2436860                       # number of demand (read+write) hits (Count)
system.cpu_cluster.cpus.icache.overallHits::cpu_cluster.cpus.inst      2436860                       # number of overall hits (Count)
system.cpu_cluster.cpus.icache.overallHits::total      2436860                       # number of overall hits (Count)
system.cpu_cluster.cpus.icache.demandMisses::cpu_cluster.cpus.inst          351                       # number of demand (read+write) misses (Count)
system.cpu_cluster.cpus.icache.demandMisses::total          351                       # number of demand (read+write) misses (Count)
system.cpu_cluster.cpus.icache.overallMisses::cpu_cluster.cpus.inst          351                       # number of overall misses (Count)
system.cpu_cluster.cpus.icache.overallMisses::total          351                       # number of overall misses (Count)
system.cpu_cluster.cpus.icache.demandMissLatency::cpu_cluster.cpus.inst     20220750                       # number of demand (read+write) miss ticks (Tick)
system.cpu_cluster.cpus.icache.demandMissLatency::total     20220750                       # number of demand (read+write) miss ticks (Tick)
system.cpu_cluster.cpus.icache.overallMissLatency::cpu_cluster.cpus.inst     20220750                       # number of overall miss ticks (Tick)
system.cpu_cluster.cpus.icache.overallMissLatency::total     20220750                       # number of overall miss ticks (Tick)
system.cpu_cluster.cpus.icache.demandAccesses::cpu_cluster.cpus.inst      2437211                       # number of demand (read+write) accesses (Count)
system.cpu_cluster.cpus.icache.demandAccesses::total      2437211                       # number of demand (read+write) accesses (Count)
system.cpu_cluster.cpus.icache.overallAccesses::cpu_cluster.cpus.inst      2437211                       # number of overall (read+write) accesses (Count)
system.cpu_cluster.cpus.icache.overallAccesses::total      2437211                       # number of overall (read+write) accesses (Count)
system.cpu_cluster.cpus.icache.demandMissRate::cpu_cluster.cpus.inst     0.000144                       # miss rate for demand accesses (Ratio)
system.cpu_cluster.cpus.icache.demandMissRate::total     0.000144                       # miss rate for demand accesses (Ratio)
system.cpu_cluster.cpus.icache.overallMissRate::cpu_cluster.cpus.inst     0.000144                       # miss rate for overall accesses (Ratio)
system.cpu_cluster.cpus.icache.overallMissRate::total     0.000144                       # miss rate for overall accesses (Ratio)
system.cpu_cluster.cpus.icache.demandAvgMissLatency::cpu_cluster.cpus.inst 57608.974359                       # average overall miss latency in ticks ((Tick/Count))
system.cpu_cluster.cpus.icache.demandAvgMissLatency::total 57608.974359                       # average overall miss latency in ticks ((Tick/Count))
system.cpu_cluster.cpus.icache.overallAvgMissLatency::cpu_cluster.cpus.inst 57608.974359                       # average overall miss latency ((Tick/Count))
system.cpu_cluster.cpus.icache.overallAvgMissLatency::total 57608.974359                       # average overall miss latency ((Tick/Count))
system.cpu_cluster.cpus.icache.blockedCycles::no_mshrs            0                       # number of cycles access was blocked (Cycle)
system.cpu_cluster.cpus.icache.blockedCycles::no_targets            0                       # number of cycles access was blocked (Cycle)
system.cpu_cluster.cpus.icache.blockedCauses::no_mshrs            0                       # number of times access was blocked (Count)
system.cpu_cluster.cpus.icache.blockedCauses::no_targets            0                       # number of times access was blocked (Count)
system.cpu_cluster.cpus.icache.avgBlocked::no_mshrs          nan                       # average number of cycles each access was blocked ((Cycle/Count))
system.cpu_cluster.cpus.icache.avgBlocked::no_targets          nan                       # average number of cycles each access was blocked ((Cycle/Count))
system.cpu_cluster.cpus.icache.demandMshrMisses::cpu_cluster.cpus.inst          351                       # number of demand (read+write) MSHR misses (Count)
system.cpu_cluster.cpus.icache.demandMshrMisses::total          351                       # number of demand (read+write) MSHR misses (Count)
system.cpu_cluster.cpus.icache.overallMshrMisses::cpu_cluster.cpus.inst          351                       # number of overall MSHR misses (Count)
system.cpu_cluster.cpus.icache.overallMshrMisses::total          351                       # number of overall MSHR misses (Count)
system.cpu_cluster.cpus.icache.demandMshrMissLatency::cpu_cluster.cpus.inst     20133250                       # number of demand (read+write) MSHR miss ticks (Tick)
system.cpu_cluster.cpus.icache.demandMshrMissLatency::total     20133250                       # number of demand (read+write) MSHR miss ticks (Tick)
system.cpu_cluster.cpus.icache.overallMshrMissLatency::cpu_cluster.cpus.inst     20133250                       # number of overall MSHR miss ticks (Tick)
system.cpu_cluster.cpus.icache.overallMshrMissLatency::total     20133250                       # number of overall MSHR miss ticks (Tick)
system.cpu_cluster.cpus.icache.demandMshrMissRate::cpu_cluster.cpus.inst     0.000144                       # mshr miss ratio for demand accesses (Ratio)
system.cpu_cluster.cpus.icache.demandMshrMissRate::total     0.000144                       # mshr miss ratio for demand accesses (Ratio)
system.cpu_cluster.cpus.icache.overallMshrMissRate::cpu_cluster.cpus.inst     0.000144                       # mshr miss ratio for overall accesses (Ratio)
system.cpu_cluster.cpus.icache.overallMshrMissRate::total     0.000144                       # mshr miss ratio for overall accesses (Ratio)
system.cpu_cluster.cpus.icache.demandAvgMshrMissLatency::cpu_cluster.cpus.inst 57359.686610                       # average overall mshr miss latency ((Tick/Count))
system.cpu_cluster.cpus.icache.demandAvgMshrMissLatency::total 57359.686610                       # average overall mshr miss latency ((Tick/Count))
system.cpu_cluster.cpus.icache.overallAvgMshrMissLatency::cpu_cluster.cpus.inst 57359.686610                       # average overall mshr miss latency ((Tick/Count))
system.cpu_cluster.cpus.icache.overallAvgMshrMissLatency::total 57359.686610                       # average overall mshr miss latency ((Tick/Count))
system.cpu_cluster.cpus.icache.replacements           58                       # number of replacements (Count)
system.cpu_cluster.cpus.icache.ReadReq.hits::cpu_cluster.cpus.inst      2436860                       # number of ReadReq hits (Count)
system.cpu_cluster.cpus.icache.ReadReq.hits::total      2436860                       # number of ReadReq hits (Count)
system.cpu_cluster.cpus.icache.ReadReq.misses::cpu_cluster.cpus.inst          351                       # number of ReadReq misses (Count)
system.cpu_cluster.cpus.icache.ReadReq.misses::total          351                       # number of ReadReq misses (Count)
system.cpu_cluster.cpus.icache.ReadReq.missLatency::cpu_cluster.cpus.inst     20220750                       # number of ReadReq miss ticks (Tick)
system.cpu_cluster.cpus.icache.ReadReq.missLatency::total     20220750                       # number of ReadReq miss ticks (Tick)
system.cpu_cluster.cpus.icache.ReadReq.accesses::cpu_cluster.cpus.inst      2437211                       # number of ReadReq accesses(hits+misses) (Count)
system.cpu_cluster.cpus.icache.ReadReq.accesses::total      2437211                       # number of ReadReq accesses(hits+misses) (Count)
system.cpu_cluster.cpus.icache.ReadReq.missRate::cpu_cluster.cpus.inst     0.000144                       # miss rate for ReadReq accesses (Ratio)
system.cpu_cluster.cpus.icache.ReadReq.missRate::total     0.000144                       # miss rate for ReadReq accesses (Ratio)
system.cpu_cluster.cpus.icache.ReadReq.avgMissLatency::cpu_cluster.cpus.inst 57608.974359                       # average ReadReq miss latency ((Tick/Count))
system.cpu_cluster.cpus.icache.ReadReq.avgMissLatency::total 57608.974359                       # average ReadReq miss latency ((Tick/Count))
system.cpu_cluster.cpus.icache.ReadReq.mshrMisses::cpu_cluster.cpus.inst          351                       # number of ReadReq MSHR misses (Count)
system.cpu_cluster.cpus.icache.ReadReq.mshrMisses::total          351                       # number of ReadReq MSHR misses (Count)
system.cpu_cluster.cpus.icache.ReadReq.mshrMissLatency::cpu_cluster.cpus.inst     20133250                       # number of ReadReq MSHR miss ticks (Tick)
system.cpu_cluster.cpus.icache.ReadReq.mshrMissLatency::total     20133250                       # number of ReadReq MSHR miss ticks (Tick)
system.cpu_cluster.cpus.icache.ReadReq.mshrMissRate::cpu_cluster.cpus.inst     0.000144                       # mshr miss rate for ReadReq accesses (Ratio)
system.cpu_cluster.cpus.icache.ReadReq.mshrMissRate::total     0.000144                       # mshr miss rate for ReadReq accesses (Ratio)
system.cpu_cluster.cpus.icache.ReadReq.avgMshrMissLatency::cpu_cluster.cpus.inst 57359.686610                       # average ReadReq mshr miss latency ((Tick/Count))
system.cpu_cluster.cpus.icache.ReadReq.avgMshrMissLatency::total 57359.686610                       # average ReadReq mshr miss latency ((Tick/Count))
system.cpu_cluster.cpus.icache.power_state.pwrStateResidencyTicks::UNDEFINED   2837583500                       # Cumulative time (in ticks) in various power states (Tick)
system.cpu_cluster.cpus.icache.tags.tagsInUse   289.711375                       # Average ticks per tags in use ((Tick/Count))
system.cpu_cluster.cpus.icache.tags.totalRefs          436                       # Total number of references to valid blocks. (Count)
system.cpu_cluster.cpus.icache.tags.sampledRefs           58                       # Sample count of references to valid blocks. (Count)
system.cpu_cluster.cpus.icache.tags.avgRefs     7.517241                       # Average number of references to valid blocks. ((Count/Count))
system.cpu_cluster.cpus.icache.tags.warmupTick        78500                       # The tick when the warmup percentage was hit. (Tick)
system.cpu_cluster.cpus.icache.tags.occupancies::cpu_cluster.cpus.inst   289.711375                       # Average occupied blocks per tick, per requestor ((Count/Tick))
system.cpu_cluster.cpus.icache.tags.avgOccs::cpu_cluster.cpus.inst     0.565843                       # Average percentage of cache occupancy ((Ratio/Tick))
system.cpu_cluster.cpus.icache.tags.avgOccs::total     0.565843                       # Average percentage of cache occupancy ((Ratio/Tick))
system.cpu_cluster.cpus.icache.tags.occupanciesTaskId::1024          292                       # Occupied blocks per task id (Count)
system.cpu_cluster.cpus.icache.tags.ageTaskId_1024::0            1                       # Occupied blocks per task id, per block age (Count)
system.cpu_cluster.cpus.icache.tags.ageTaskId_1024::3          291                       # Occupied blocks per task id, per block age (Count)
system.cpu_cluster.cpus.icache.tags.ratioOccsTaskId::1024     0.570312                       # Ratio of occupied blocks and all blocks, per task id (Ratio)
system.cpu_cluster.cpus.icache.tags.tagAccesses      4874772                       # Number of tag accesses (Count)
system.cpu_cluster.cpus.icache.tags.dataAccesses      4874772                       # Number of data accesses (Count)
system.cpu_cluster.cpus.icache.tags.power_state.pwrStateResidencyTicks::UNDEFINED   2837583500                       # Cumulative time (in ticks) in various power states (Tick)
system.cpu_cluster.cpus.mmu.alignFaults             0                       # Number of MMU faults due to alignment restrictions (Count)
system.cpu_cluster.cpus.mmu.prefetchFaults            0                       # Number of MMU faults due to prefetch (Count)
system.cpu_cluster.cpus.mmu.domainFaults            0                       # Number of MMU faults due to domain restrictions (Count)
system.cpu_cluster.cpus.mmu.permsFaults             0                       # Number of MMU faults due to permissions restrictions (Count)
system.cpu_cluster.cpus.mmu.dtb.readHits            0                       # Read hits (Count)
system.cpu_cluster.cpus.mmu.dtb.readMisses            0                       # Read misses (Count)
system.cpu_cluster.cpus.mmu.dtb.writeHits            0                       # Write hits (Count)
system.cpu_cluster.cpus.mmu.dtb.writeMisses            0                       # Write misses (Count)
system.cpu_cluster.cpus.mmu.dtb.inserts             0                       # Number of times an entry is inserted into the TLB (Count)
system.cpu_cluster.cpus.mmu.dtb.flushTlb            0                       # Number of times a TLB invalidation was requested (Count)
system.cpu_cluster.cpus.mmu.dtb.flushedEntries            0                       # Number of entries that have been flushed from TLB (Count)
system.cpu_cluster.cpus.mmu.dtb.readAccesses            0                       # Read accesses (Count)
system.cpu_cluster.cpus.mmu.dtb.writeAccesses            0                       # Write accesses (Count)
system.cpu_cluster.cpus.mmu.dtb.hits                0                       # Total TLB (inst and data) hits (Count)
system.cpu_cluster.cpus.mmu.dtb.misses              0                       # Total TLB (inst and data) misses (Count)
system.cpu_cluster.cpus.mmu.dtb.accesses            0                       # Total TLB (inst and data) accesses (Count)
system.cpu_cluster.cpus.mmu.dtb_walker.walks            0                       # Table walker walks requested (Count)
[...]
system.mem_ctrls1.dram.numReads::total            176                       # Number of read requests responded to by this memory (Count)
system.mem_ctrls1.dram.bwRead::cpu_cluster.cpus.inst    254045663                       # Total read bandwidth from this memory ((Byte/Second))
system.mem_ctrls1.dram.bwRead::cpu_cluster.cpus.data     65326028                       # Total read bandwidth from this memory ((Byte/Second))
system.mem_ctrls1.dram.bwRead::total        319371691                       # Total read bandwidth from this memory ((Byte/Second))
system.mem_ctrls1.dram.bwInstRead::cpu_cluster.cpus.inst    254045663                       # Instruction read bandwidth from this memory ((Byte/Second))
system.mem_ctrls1.dram.bwInstRead::total    254045663                       # Instruction read bandwidth from this memory ((Byte/Second))
system.mem_ctrls1.dram.bwTotal::cpu_cluster.cpus.inst    254045663                       # Total bandwidth to/from this memory ((Byte/Second))
system.mem_ctrls1.dram.bwTotal::cpu_cluster.cpus.data     65326028                       # Total bandwidth to/from this memory ((Byte/Second))
system.mem_ctrls1.dram.bwTotal::total       319371691                       # Total bandwidth to/from this memory ((Byte/Second))
system.mem_ctrls1.dram.readBursts                 176                       # Number of DRAM read bursts (Count)
system.mem_ctrls1.dram.writeBursts                  0                       # Number of DRAM write bursts (Count)
system.mem_ctrls1.dram.perBankRdBursts::0            4                       # Per bank write bursts (Count)
system.mem_ctrls1.dram.perBankRdBursts::1            1                       # Per bank write bursts (Count)
system.mem_ctrls1.dram.perBankRdBursts::2            8                       # Per bank write bursts (Count)
system.mem_ctrls1.dram.perBankRdBursts::3            4                       # Per bank write bursts (Count)
system.mem_ctrls1.dram.perBankRdBursts::4           12                       # Per bank write bursts (Count)
system.mem_ctrls1.dram.perBankRdBursts::5           20                       # Per bank write bursts (Count)
system.mem_ctrls1.dram.perBankRdBursts::6           12                       # Per bank write bursts (Count)
system.mem_ctrls1.dram.perBankRdBursts::7           21                       # Per bank write bursts (Count)
system.mem_ctrls1.dram.perBankRdBursts::8            0                       # Per bank write bursts (Count)
system.mem_ctrls1.dram.perBankRdBursts::9            6                       # Per bank write bursts (Count)
system.mem_ctrls1.dram.perBankRdBursts::10            1                       # Per bank write bursts (Count)
system.mem_ctrls1.dram.perBankRdBursts::11            2                       # Per bank write bursts (Count)
system.mem_ctrls1.dram.perBankRdBursts::12            1                       # Per bank write bursts (Count)
system.mem_ctrls1.dram.perBankRdBursts::13            7                       # Per bank write bursts (Count)
system.mem_ctrls1.dram.perBankRdBursts::14           66                       # Per bank write bursts (Count)
system.mem_ctrls1.dram.perBankRdBursts::15           11                       # Per bank write bursts (Count)
system.mem_ctrls1.dram.perBankWrBursts::0            0                       # Per bank write bursts (Count)
system.mem_ctrls1.dram.perBankWrBursts::1            0                       # Per bank write bursts (Count)
system.mem_ctrls1.dram.perBankWrBursts::2            0                       # Per bank write bursts (Count)
system.mem_ctrls1.dram.perBankWrBursts::3            0                       # Per bank write bursts (Count)
system.mem_ctrls1.dram.perBankWrBursts::4            0                       # Per bank write bursts (Count)
system.mem_ctrls1.dram.perBankWrBursts::5            0                       # Per bank write bursts (Count)
system.mem_ctrls1.dram.perBankWrBursts::6            0                       # Per bank write bursts (Count)
system.mem_ctrls1.dram.perBankWrBursts::7            0                       # Per bank write bursts (Count)
system.mem_ctrls1.dram.perBankWrBursts::8            0                       # Per bank write bursts (Count)
system.mem_ctrls1.dram.perBankWrBursts::9            0                       # Per bank write bursts (Count)
system.mem_ctrls1.dram.perBankWrBursts::10            0                       # Per bank write bursts (Count)
system.mem_ctrls1.dram.perBankWrBursts::11            0                       # Per bank write bursts (Count)
system.mem_ctrls1.dram.perBankWrBursts::12            0                       # Per bank write bursts (Count)
system.mem_ctrls1.dram.perBankWrBursts::13            0                       # Per bank write bursts (Count)
system.mem_ctrls1.dram.perBankWrBursts::14            0                       # Per bank write bursts (Count)
system.mem_ctrls1.dram.perBankWrBursts::15            0                       # Per bank write bursts (Count)
system.mem_ctrls1.dram.totQLat                1658500                       # Total ticks spent queuing (Tick)
system.mem_ctrls1.dram.totBusLat               880000                       # Total ticks spent in databus transfers (Tick)
system.mem_ctrls1.dram.totMemAccLat           4958500                       # Total ticks spent from burst creation until serviced by the DRAM (Tick)
system.mem_ctrls1.dram.avgQLat                9423.30                       # Average queueing delay per DRAM burst ((Tick/Count))
system.mem_ctrls1.dram.avgBusLat              5000.00                       # Average bus latency per DRAM burst ((Tick/Count))
system.mem_ctrls1.dram.avgMemAccLat          28173.30                       # Average memory access latency per DRAM burst ((Tick/Count))
system.mem_ctrls1.dram.readRowHits                129                       # Number of row buffer hits during reads (Count)
system.mem_ctrls1.dram.writeRowHits                 0                       # Number of row buffer hits during writes (Count)
system.mem_ctrls1.dram.readRowHitRate           73.30                       # Row buffer hit rate for reads (Ratio)
system.mem_ctrls1.dram.writeRowHitRate            nan                       # Row buffer hit rate for writes (Ratio)
system.mem_ctrls1.dram.bytesPerActivate::samples           42                       # Bytes accessed per row activation (Byte)
system.mem_ctrls1.dram.bytesPerActivate::mean   227.047619                       # Bytes accessed per row activation (Byte)
system.mem_ctrls1.dram.bytesPerActivate::gmean   155.923981                       # Bytes accessed per row activation (Byte)
system.mem_ctrls1.dram.bytesPerActivate::stdev   242.452203                       # Bytes accessed per row activation (Byte)
system.mem_ctrls1.dram.bytesPerActivate::0-127           12     28.57%     28.57% # Bytes accessed per row activation (Byte)
system.mem_ctrls1.dram.bytesPerActivate::128-255           17     40.48%     69.05% # Bytes accessed per row activation (Byte)
system.mem_ctrls1.dram.bytesPerActivate::256-383            7     16.67%     85.71% # Bytes accessed per row activation (Byte)
system.mem_ctrls1.dram.bytesPerActivate::384-511            1      2.38%     88.10% # Bytes accessed per row activation (Byte)
system.mem_ctrls1.dram.bytesPerActivate::512-639            1      2.38%     90.48% # Bytes accessed per row activation (Byte)
system.mem_ctrls1.dram.bytesPerActivate::640-767            1      2.38%     92.86% # Bytes accessed per row activation (Byte)
system.mem_ctrls1.dram.bytesPerActivate::768-895            1      2.38%     95.24% # Bytes accessed per row activation (Byte)
system.mem_ctrls1.dram.bytesPerActivate::896-1023            1      2.38%     97.62% # Bytes accessed per row activation (Byte)
system.mem_ctrls1.dram.bytesPerActivate::1024-1151            1      2.38%    100.00% # Bytes accessed per row activation (Byte)
system.mem_ctrls1.dram.bytesPerActivate::total           42                       # Bytes accessed per row activation (Byte)
system.mem_ctrls1.dram.dramBytesRead            11264                       # Total bytes read (Byte)
system.mem_ctrls1.dram.dramBytesWritten             0                       # Total bytes written (Byte)
system.mem_ctrls1.dram.avgRdBW             319.371691                       # Average DRAM read bandwidth in MiBytes/s ((Byte/Second))
system.mem_ctrls1.dram.avgWrBW                      0                       # Average DRAM write bandwidth in MiBytes/s ((Byte/Second))
system.mem_ctrls1.dram.peakBW                12800.00                       # Theoretical peak bandwidth in MiByte/s ((Byte/Second))
system.mem_ctrls1.dram.busUtil                   2.50                       # Data bus utilization in percentage (Ratio)
system.mem_ctrls1.dram.busUtilRead               2.50                       # Data bus utilization in percentage for reads (Ratio)
system.mem_ctrls1.dram.busUtilWrite              0.00                       # Data bus utilization in percentage for writes (Ratio)
system.mem_ctrls1.dram.pageHitRate              73.30                       # Row buffer hit rate, read and write combined (Ratio)
system.mem_ctrls1.dram.power_state.pwrStateResidencyTicks::UNDEFINED     35269250                       # Cumulative time (in ticks) in various power states (Tick)
system.mem_ctrls1.dram.rank0.actEnergy         157080                       # Energy for activate commands per rank (pJ) (Joule)
system.mem_ctrls1.dram.rank0.preEnergy          68310                       # Energy for precharge commands per rank (pJ) (Joule)
system.mem_ctrls1.dram.rank0.readEnergy        585480                       # Energy for read commands per rank (pJ) (Joule)
system.mem_ctrls1.dram.rank0.writeEnergy            0                       # Energy for write commands per rank (pJ) (Joule)
system.mem_ctrls1.dram.rank0.refreshEnergy 3073200.000000                       # Energy for refresh commands per rank (pJ) (Joule)
system.mem_ctrls1.dram.rank0.actBackEnergy      9784620                       # Energy for active background per rank (pJ) (Joule)
system.mem_ctrls1.dram.rank0.preBackEnergy      5303520                       # Energy for precharge background per rank (pJ) (Joule)
system.mem_ctrls1.dram.rank0.actPowerDownEnergy            0                       # Energy for active power-down per rank (pJ) (Joule)
system.mem_ctrls1.dram.rank0.prePowerDownEnergy            0                       # Energy for precharge power-down per rank (pJ) (Joule)
system.mem_ctrls1.dram.rank0.selfRefreshEnergy            0                       # Energy for self refresh per rank (pJ) (Joule)
system.mem_ctrls1.dram.rank0.totalEnergy     18972210                       # Total energy per rank (pJ) (Joule)
system.mem_ctrls1.dram.rank0.averagePower   537.924963                       # Core power per rank (mW) (Watt)
system.mem_ctrls1.dram.rank0.totalIdleTime            0                       # Total Idle time Per DRAM Rank (Tick)
system.mem_ctrls1.dram.rank0.pwrStateTime::IDLE     13685500                       # Time in different power states (Tick)
system.mem_ctrls1.dram.rank0.pwrStateTime::REF      1300000                       # Time in different power states (Tick)
system.mem_ctrls1.dram.rank0.pwrStateTime::SREF            0                       # Time in different power states (Tick)
system.mem_ctrls1.dram.rank0.pwrStateTime::PRE_PDN            0                       # Time in different power states (Tick)
system.mem_ctrls1.dram.rank0.pwrStateTime::ACT     20283750                       # Time in different power states (Tick)
system.mem_ctrls1.dram.rank0.pwrStateTime::ACT_PDN            0                       # Time in different power states (Tick)
system.mem_ctrls1.dram.rank1.actEnergy         178500                       # Energy for activate commands per rank (pJ) (Joule)
system.mem_ctrls1.dram.rank1.preEnergy          91080                       # Energy for precharge commands per rank (pJ) (Joule)
system.mem_ctrls1.dram.rank1.readEnergy        671160                       # Energy for read commands per rank (pJ) (Joule)
system.mem_ctrls1.dram.rank1.writeEnergy            0                       # Energy for write commands per rank (pJ) (Joule)
system.mem_ctrls1.dram.rank1.refreshEnergy 3073200.000000                       # Energy for refresh commands per rank (pJ) (Joule)
system.mem_ctrls1.dram.rank1.actBackEnergy      8257020                       # Energy for active background per rank (pJ) (Joule)
system.mem_ctrls1.dram.rank1.preBackEnergy      6589920                       # Energy for precharge background per rank (pJ) (Joule)
system.mem_ctrls1.dram.rank1.actPowerDownEnergy            0                       # Energy for active power-down per rank (pJ) (Joule)
system.mem_ctrls1.dram.rank1.prePowerDownEnergy            0                       # Energy for precharge power-down per rank (pJ) (Joule)
system.mem_ctrls1.dram.rank1.selfRefreshEnergy            0                       # Energy for self refresh per rank (pJ) (Joule)
system.mem_ctrls1.dram.rank1.totalEnergy     18860880                       # Total energy per rank (pJ) (Joule)
system.mem_ctrls1.dram.rank1.averagePower   534.768389                       # Core power per rank (mW) (Watt)
system.mem_ctrls1.dram.rank1.totalIdleTime            0                       # Total Idle time Per DRAM Rank (Tick)
system.mem_ctrls1.dram.rank1.pwrStateTime::IDLE     17049750                       # Time in different power states (Tick)
system.mem_ctrls1.dram.rank1.pwrStateTime::REF      1300000                       # Time in different power states (Tick)
system.mem_ctrls1.dram.rank1.pwrStateTime::SREF            0                       # Time in different power states (Tick)
system.mem_ctrls1.dram.rank1.pwrStateTime::PRE_PDN            0                       # Time in different power states (Tick)
system.mem_ctrls1.dram.rank1.pwrStateTime::ACT     16919500                       # Time in different power states (Tick)
system.mem_ctrls1.dram.rank1.pwrStateTime::ACT_PDN            0                       # Time in different power states (Tick)
system.mem_ctrls1.power_state.pwrStateResidencyTicks::UNDEFINED     35269250                       # Cumulative time (in ticks) in various power states (Tick)
system.membus.transDist::ReadResp                 320                       # Transaction distribution (Count)
system.membus.transDist::ReadExReq                 29                       # Transaction distribution (Count)
system.membus.transDist::ReadExResp                29                       # Transaction distribution (Count)
system.membus.transDist::ReadSharedReq            320                       # Transaction distribution (Count)
system.membus.pktCount_system.cpu_cluster.l2.mem_side_port::system.mem_ctrls0.port          346                       # Packet count per connected requestor and responder (Count)
system.membus.pktCount_system.cpu_cluster.l2.mem_side_port::system.mem_ctrls1.port          352                       # Packet count per connected requestor and responder (Count)
system.membus.pktCount_system.cpu_cluster.l2.mem_side_port::total          698                       # Packet count per connected requestor and responder (Count)
system.membus.pktCount::total                     698                       # Packet count per connected requestor and responder (Count)
system.membus.pktSize_system.cpu_cluster.l2.mem_side_port::system.mem_ctrls0.port        11072                       # Cumulative packet size per connected requestor and responder (Byte)
system.membus.pktSize_system.cpu_cluster.l2.mem_side_port::system.mem_ctrls1.port        11264                       # Cumulative packet size per connected requestor and responder (Byte)
system.membus.pktSize_system.cpu_cluster.l2.mem_side_port::total        22336                       # Cumulative packet size per connected requestor and responder (Byte)
system.membus.pktSize::total                    22336                       # Cumulative packet size per connected requestor and responder (Byte)
system.membus.snoops                                0                       # Total snoops (Count)
system.membus.snoopTraffic                          0                       # Total snoop traffic (Byte)
system.membus.snoopFanout::samples                349                       # Request fanout histogram (Count)
system.membus.snoopFanout::mean                     0                       # Request fanout histogram (Count)
system.membus.snoopFanout::stdev                    0                       # Request fanout histogram (Count)
system.membus.snoopFanout::underflows               0      0.00%      0.00% # Request fanout histogram (Count)
system.membus.snoopFanout::0                      349    100.00%    100.00% # Request fanout histogram (Count)
system.membus.snoopFanout::1                        0      0.00%    100.00% # Request fanout histogram (Count)
system.membus.snoopFanout::overflows                0      0.00%    100.00% # Request fanout histogram (Count)
system.membus.snoopFanout::min_value                0                       # Request fanout histogram (Count)
system.membus.snoopFanout::max_value                0                       # Request fanout histogram (Count)
system.membus.snoopFanout::total                  349                       # Request fanout histogram (Count)
system.membus.power_state.pwrStateResidencyTicks::UNDEFINED     35269250                       # Cumulative time (in ticks) in various power states (Tick)
system.membus.reqLayer0.occupancy              206500                       # Layer occupancy (ticks) (Tick)
system.membus.reqLayer0.utilization               0.0                       # Layer utilization (Ratio)
system.membus.reqLayer1.occupancy              210000                       # Layer occupancy (ticks) (Tick)
system.membus.reqLayer1.utilization               0.0                       # Layer utilization (Ratio)
system.membus.respLayer0.occupancy            1858500                       # Layer occupancy (ticks) (Tick)
system.membus.respLayer0.utilization              0.1                       # Layer utilization (Ratio)
system.membus.snoop_filter.totRequests            349                       # Total number of requests made to the snoop filter. (Count)
system.membus.snoop_filter.hitSingleRequests            0                       # Number of requests hitting in the snoop filter with a single holder of the requested data. (Count)
system.membus.snoop_filter.hitMultiRequests            0                       # Number of requests hitting in the snoop filter with multiple (>1) holders of the requested data. (Count)
system.membus.snoop_filter.totSnoops                0                       # Total number of snoops made to the snoop filter. (Count)
system.membus.snoop_filter.hitSingleSnoops            0                       # Number of snoops hitting in the snoop filter with a single holder of the requested data. (Count)
system.membus.snoop_filter.hitMultiSnoops            0                       # Number of snoops hitting in the snoop filter with multiple (>1) holders of the requested data. (Count)
system.voltage_domain.voltage                3.300000                       # Voltage in Volts (Volt)
system.workload.inst.arm                            0                       # number of arm instructions executed (Count)
system.workload.inst.quiesce                        0                       # number of quiesce instructions executed (Count)
system.cpu_cluster.cpus.idleCycles              72081                       # Total number of cycles that the object has spent stopped (Unspecified)
system.cpu_cluster.cpus.tickCycles              68996                       # Number of cycles that the object actually ticked (Unspecified)

---------- End Simulation Statistics   ----------
